.model Dbreak-X1 D Is=1e-10 Cjo=100pF Rs=.1 
*$
