*version 9.2 62345214
u 1869
U? 3
V? 9
D? 14
S? 5
L? 9
R? 21
C? 13
K? 3
? 22
Q? 2
GAIN? 2
PM? 2
@libraries
@analysis
.TRAN 1 0 1 0
+0 0ns
+1 80m
+3 1.57u
.OPT 0 0 0 0 0 0 0 0 0 0 0 0 0 0 0 0 0
ABSTOL 1uA
DIGINITSTATE 2
DIGIOLVL 1
ITL4 70
RELTOL 0.01
.STEP 0 3 4
+ 0 Vvar
+ -1 37.141, 37.139, 37.137, 37.135, 37.132, 37.129, 37.127, 37.122, 37, 35, 33, 30, 27, 25
.OP 0 
.PROBE 0 1118480 -1 0 1 3
@targets
@attributes
@translators
a 0 u 13 0 0 0 hln 100 PCBOARDS=PCB
a 0 u 13 0 0 0 hln 100 PSPICE=PSPICE
a 0 u 13 0 0 0 hln 100 XILINX=XILINX
@setup
unconnectedPins 0
connectViaLabel 0
connectViaLocalLabels 0
NoStim4ExtIFPortsWarnings 1
AutoGenStim4ExtIFPorts 1
@index
pageloc 1 0 19093 
@status
c 119:04:06:19:43:21;1557161001
n 0 119:04:06:19:43:23;1557161003 e 
s 2832 119:04:06:19:43:23;1557161003 e 
*page 1 0 1520 970 iB
@ports
port 46 GND_ANALOG 160 140 h
port 47 GND_ANALOG 160 240 h
port 44 BUBBLE 170 130 v
a 1 x 3 0 0 0 hcn 100 LABEL=AA1
port 45 BUBBLE 170 230 v
a 1 x 3 0 0 0 hcn 100 LABEL=AA2
port 95 GND_ANALOG 420 140 H
port 99 GND_ANALOG 420 240 H
port 132 GND_ANALOG 460 200 h
port 98 BUBBLE 410 230 V
a 1 x 3 0 0 0 hcn 100 LABEL=AA1
port 94 BUBBLE 410 130 V
a 1 x 3 0 0 0 hcn 100 LABEL=AA2
port 457 GND_ANALOG 660 570 h
port 106 GND_ANALOG 290 350 h
port 142 BUBBLE 780 190 v
a 1 x 3 0 20 6 hcn 100 LABEL=AA1
port 144 BUBBLE 780 210 v
a 1 x 3 0 20 6 hcn 100 LABEL=AA2
@parts
part 42 S 170 130 h
a 0 u 0 0 0 20 hlb 100 RON=1m
a 0 x 0:13 0 0 0 hln 100 PKGREF=S1
a 0 xp 9 0 10 2 hln 100 REFDES=S1
a 0 s 0:11 0 0 40 hln 100 PART=S
a 0 u 13 13 6 42 hlb 100 VOFF=0.0V
a 0 u 13 13 6 54 hlb 100 VON=1.0V
part 40 Dbreak 250 150 v
a 0 x 0:13 0 0 0 hln 100 PKGREF=D1
a 0 xp 9 0 19 40 hln 100 REFDES=D1
a 0 sp 13 0 5 51 hln 100 MODEL=Dbreak
part 58 S 410 130 H
a 0 u 0 0 0 20 hlb 100 RON=1m
a 0 s 0:11 0 0 40 hln 100 PART=S
a 0 u 13 13 4 42 hlb 100 VOFF=0.0V
a 0 u 13 13 6 52 hlb 100 VON=1.0V
a 0 a 0:13 0 0 0 hln 100 PKGREF=S3
a 0 ap 9 0 10 2 hln 100 REFDES=S3
part 57 Dbreak 340 150 V
a 0 sp 13 0 5 51 hln 100 MODEL=Dbreak
a 0 x 0:13 0 0 0 hln 100 PKGREF=D3
a 0 xp 9 0 19 40 hln 100 REFDES=D3
part 372 l 440 430 D
a 0 s 0 0 0 10 hlb 100 PART=l
a 0 s 0:13 0 0 0 hln 100 PKGTYPE=L2012C
a 0 s 0:13 0 0 0 hln 100 GATE=
a 0 a 0:13 0 0 0 hln 100 PKGREF=L2
a 0 ap 9 0 23 -2 hln 100 REFDES=L2
a 0 u 13 0 35 1 hln 100 VALUE=0.75m
part 604 Dbreak 480 410 v
a 0 sp 13 0 5 51 hln 100 MODEL=Dbreak
a 0 x 0:13 0 0 0 hln 100 PKGREF=D7
a 0 xp 9 0 19 40 hln 100 REFDES=D7
part 605 Dbreak 540 410 v
a 0 sp 13 0 5 51 hln 100 MODEL=Dbreak
a 0 x 0:13 0 0 0 hln 100 PKGREF=D8
a 0 xp 9 0 19 40 hln 100 REFDES=D8
part 374 Dbreak 540 540 v
a 0 x 0:13 0 0 0 hln 100 PKGREF=D6
a 0 xp 9 0 19 40 hln 100 REFDES=D6
a 0 sp 13 0 5 51 hln 100 MODEL=Dbreak
part 373 Dbreak 480 540 v
a 0 x 0:13 0 0 0 hln 100 PKGREF=D5
a 0 xp 9 0 19 40 hln 100 REFDES=D5
a 0 sp 13 0 5 51 hln 100 MODEL=Dbreak
part 56 Dbreak 340 250 V
a 0 sp 13 0 5 51 hln 100 MODEL=Dbreak
a 0 x 0:13 0 0 0 hln 100 PKGREF=D4
a 0 xp 9 0 19 40 hln 100 REFDES=D4
part 59 S 410 230 H
a 0 u 0 0 0 10 hlb 100 ROFF=1e6
a 0 u 0 0 0 20 hlb 100 RON=1m
a 0 s 0:11 0 0 40 hln 100 PART=S
a 0 u 13 13 4 42 hlb 100 VOFF=0.0V
a 0 u 13 13 6 52 hlb 100 VON=1.0V
a 0 a 0:13 0 0 0 hln 100 PKGREF=S4
a 0 ap 9 0 10 2 hln 100 REFDES=S4
part 39 Dbreak 250 250 v
a 0 x 0:13 0 0 0 hln 100 PKGREF=D2
a 0 xp 9 0 19 40 hln 100 REFDES=D2
a 0 sp 13 0 5 51 hln 100 MODEL=Dbreak
part 41 S 170 230 h
a 0 u 0 0 0 20 hlb 100 RON=1m
a 0 x 0:13 0 0 0 hln 100 PKGREF=S2
a 0 xp 9 0 10 2 hln 100 REFDES=S2
a 0 s 0:11 0 0 40 hln 100 PART=S
a 0 u 13 13 4 42 hlb 100 VOFF=0.0V
a 0 u 13 13 6 52 hlb 100 VON=1.0V
part 242 R 580 280 u
a 0 sp 0 0 0 10 hlb 100 PART=R
a 0 s 0:13 0 0 0 hln 100 PKGTYPE=RC05
a 0 s 0:13 0 0 0 hln 100 GATE=
a 0 a 0:13 0 0 0 hln 100 PKGREF=R2
a 0 ap 9 0 25 26 hln 100 REFDES=R2
a 0 u 13 0 25 1 hln 100 VALUE=1k
part 229 c 600 330 v
a 0 sp 0 0 0 10 hlb 100 PART=c
a 0 s 0:13 0 0 0 hln 100 PKGTYPE=CK05
a 0 s 0:13 0 0 0 hln 100 GATE=
a 0 a 0:13 0 0 0 hln 100 PKGREF=C1
a 0 ap 9 0 15 2 hln 100 REFDES=C1
a 0 u 13 0 3 1 hln 100 VALUE=0.5n
part 291 c 930 330 v
a 0 sp 0 0 0 10 hlb 100 PART=c
a 0 s 0:13 0 0 0 hln 100 PKGTYPE=CK05
a 0 s 0:13 0 0 0 hln 100 GATE=
a 0 a 0:13 0 0 0 hln 100 PKGREF=C3
a 0 ap 9 0 15 2 hln 100 REFDES=C3
a 0 u 13 0 1 5 hln 100 VALUE=1u
part 292 c 970 330 v
a 0 sp 0 0 0 10 hlb 100 PART=c
a 0 s 0:13 0 0 0 hln 100 PKGTYPE=CK05
a 0 s 0:13 0 0 0 hln 100 GATE=
a 0 a 0:13 0 0 0 hln 100 PKGREF=C4
a 0 ap 9 0 15 2 hln 100 REFDES=C4
a 0 u 13 0 1 5 hln 100 VALUE=1n
part 309 R 1010 300 d
a 0 sp 0 0 0 10 hlb 100 PART=R
a 0 s 0:13 0 0 0 hln 100 PKGTYPE=RC05
a 0 s 0:13 0 0 0 hln 100 GATE=
a 0 a 0:13 0 0 0 hln 100 PKGREF=R3
a 0 ap 9 0 17 30 hln 100 REFDES=R3
a 0 u 13 0 29 35 hln 100 VALUE=500k
part 130 VDC 640 180 h
a 1 u 13 0 37 24 hcn 100 DC=15
a 0 sp 0 0 22 37 hln 100 PART=VDC
a 0 a 0:13 0 0 0 hln 100 PKGREF=V2
a 1 ap 9 0 26 15 hcn 100 REFDES=V2
part 333 c 1050 330 v
a 0 sp 0 0 0 10 hlb 100 PART=c
a 0 s 0:13 0 0 0 hln 100 PKGTYPE=CK05
a 0 s 0:13 0 0 0 hln 100 GATE=
a 0 a 0:13 0 0 0 hln 100 PKGREF=C5
a 0 ap 9 0 15 2 hln 100 REFDES=C5
a 0 u 13 0 1 5 hln 100 VALUE=500p
part 349 R 1130 240 u
a 0 sp 0 0 0 10 hlb 100 PART=R
a 0 s 0:13 0 0 0 hln 100 PKGTYPE=RC05
a 0 s 0:13 0 0 0 hln 100 GATE=
a 0 a 0:13 0 0 0 hln 100 PKGREF=R6
a 0 ap 9 0 25 26 hln 100 REFDES=R6
a 0 u 13 0 25 1 hln 100 VALUE=50k
part 350 c 1140 200 u
a 0 sp 0 0 0 10 hlb 100 PART=c
a 0 s 0:13 0 0 0 hln 100 PKGTYPE=CK05
a 0 s 0:13 0 0 0 hln 100 GATE=
a 0 a 0:13 0 0 0 hln 100 PKGREF=C6
a 0 ap 9 0 19 26 hln 100 REFDES=C6
a 0 u 13 0 19 -1 hln 100 VALUE=100p
part 351 c 1170 240 u
a 0 sp 0 0 0 10 hlb 100 PART=c
a 0 s 0:13 0 0 0 hln 100 PKGTYPE=CK05
a 0 s 0:13 0 0 0 hln 100 GATE=
a 0 a 0:13 0 0 0 hln 100 PKGREF=C7
a 0 ap 9 0 19 26 hln 100 REFDES=C7
a 0 u 13 0 19 -1 hln 100 VALUE=1n
part 369 R 1180 380 v
a 0 u 13 0 15 1 hln 100 VALUE=5k
a 0 sp 0 0 0 10 hlb 100 PART=R
a 0 s 0:13 0 0 0 hln 100 PKGTYPE=RC05
a 0 s 0:13 0 0 0 hln 100 GATE=
a 0 a 0:13 0 0 0 hln 100 PKGREF=R7
a 0 ap 9 0 25 2 hln 100 REFDES=R7
part 37 SG1825 870 170 H
a 0 sp 11 0 54 182 hlb 100 PART=SG1825
a 0 s 0:13 0 0 0 hln 100 PKGTYPE=DIP16
a 0 s 0:13 0 0 0 hln 100 GATE=
a 1 ap 9 0 58 8 hln 100 REFDES=U1
a 0 a 0:13 0 0 0 hln 100 PKGREF=U1
a 0 u 0 0 0 10 hln 100 PERIOD={1/20k}
part 677 c 1090 330 v
a 0 u 13 0 1 5 hln 100 VALUE=1n
a 0 sp 0 0 0 10 hlb 100 PART=c
a 0 s 0:13 0 0 0 hln 100 PKGTYPE=CK05
a 0 s 0:13 0 0 0 hln 100 GATE=
a 0 a 0:13 0 0 0 hln 100 PKGREF=C10
a 0 ap 9 0 15 2 hln 100 REFDES=C10
part 541 K_Linear 140 420 h
a 0 u 13 13 31 30 hcn 100 COUPLING=1
a 0 u 13 0 4 42 hln 100 L1=L1
a 0 u 13 0 4 53 hln 100 L2=L2
a 0 sp 11 0 1 20 hln 100 PART=K_Linear
a 0 a 0:13 0 0 0 hln 100 PKGREF=K1
a 1 ap 9 0 22 8 hcn 100 REFDES=K1
part 276 c 890 330 v
a 0 u 13 0 1 5 hln 100 VALUE=100p
a 0 sp 0 0 0 10 hlb 100 PART=c
a 0 s 0:13 0 0 0 hln 100 PKGTYPE=CK05
a 0 s 0:13 0 0 0 hln 100 GATE=
a 0 a 0:13 0 0 0 hln 100 PKGREF=C2
a 0 ap 9 0 15 2 hln 100 REFDES=C2
part 427 R 770 450 d
a 0 sp 0 0 0 10 hlb 100 PART=R
a 0 s 0:13 0 0 0 hln 100 PKGTYPE=RC05
a 0 s 0:13 0 0 0 hln 100 GATE=
a 0 a 0:13 0 0 0 hln 100 PKGREF=R9
a 0 ap 9 0 17 30 hln 100 REFDES=R9
a 0 u 13 0 29 31 hln 100 VALUE=10k
part 408 c 660 480 v
a 0 sp 0 0 0 10 hlb 100 PART=c
a 0 s 0:13 0 0 0 hln 100 PKGTYPE=CK05
a 0 s 0:13 0 0 0 hln 100 GATE=
a 0 a 0:13 0 0 0 hln 100 PKGREF=C8
a 0 ap 9 0 15 2 hln 100 REFDES=C8
a 0 u 13 0 1 5 hln 100 VALUE=100u
part 643 l 650 370 H
a 0 s 0 0 0 10 hlb 100 PART=l
a 0 s 0:13 0 0 0 hln 100 PKGTYPE=L2012C
a 0 s 0:13 0 0 0 hln 100 GATE=
a 0 a 0:13 0 0 0 hln 100 PKGREF=L5
a 0 ap 9 0 23 0 hln 100 REFDES=L5
a 0 u 13 0 21 21 hln 100 VALUE=1m
part 1146 R 850 410 d
a 0 u 13 0 29 33 hln 100 VALUE=32k
a 0 sp 0 0 0 10 hlb 100 PART=R
a 0 s 0:13 0 0 0 hln 100 PKGTYPE=RC05
a 0 s 0:13 0 0 0 hln 100 GATE=
a 0 a 0:13 0 0 0 hln 100 PKGREF=R19
a 0 ap 9 0 17 32 hln 100 REFDES=R19
part 426 c 770 430 v
a 0 sp 0 0 0 10 hlb 100 PART=c
a 0 s 0:13 0 0 0 hln 100 PKGTYPE=CK05
a 0 s 0:13 0 0 0 hln 100 GATE=
a 0 a 0:13 0 0 0 hln 100 PKGREF=C9
a 0 ap 9 0 15 2 hln 100 REFDES=C9
a 0 u 13 0 1 5 hln 100 VALUE=300p
part 1145 R 850 520 d
a 0 u 13 0 29 33 hln 100 VALUE=5.1k
a 0 sp 0 0 0 10 hlb 100 PART=R
a 0 s 0:13 0 0 0 hln 100 PKGTYPE=RC05
a 0 s 0:13 0 0 0 hln 100 GATE=
a 0 a 0:13 0 0 0 hln 100 PKGREF=R18
a 0 ap 9 0 17 32 hln 100 REFDES=R18
part 100 R 290 350 v
a 0 u 13 0 15 1 hln 100 VALUE=600m
a 0 sp 0 0 0 10 hlb 100 PART=R
a 0 s 0:13 0 0 0 hln 100 PKGTYPE=RC05
a 0 s 0:13 0 0 0 hln 100 GATE=
a 0 a 0:13 0 0 0 hln 100 PKGREF=R1
a 0 ap 9 0 25 2 hln 100 REFDES=R1
part 417 R 690 510 d
a 0 sp 0 0 0 10 hlb 100 PART=R
a 0 s 0:13 0 0 0 hln 100 PKGTYPE=RC05
a 0 s 0:13 0 0 0 hln 100 GATE=
a 0 a 0:13 0 0 0 hln 100 PKGREF=R8
a 0 ap 9 0 17 30 hln 100 REFDES=R8
a 0 u 13 0 31 33 hln 100 VALUE=3m
part 38 VDC 120 180 h
a 1 u 13 0 37 26 hcn 100 DC=240
a 0 sp 0 0 22 37 hln 100 PART=VDC
a 0 a 0:13 0 0 0 hln 100 PKGREF=V1
a 1 ap 9 0 28 17 hcn 100 REFDES=V1
part 1855 VDC 690 420 h
a 0 sp 0 0 22 37 hln 100 PART=VDC
a 0 a 0:13 0 0 0 hln 100 PKGREF=V8
a 1 ap 9 0 28 17 hcn 100 REFDES=V8
a 1 u 13 0 31 28 hcn 100 DC=25
part 43 l 260 180 h
a 0 u 13 0 21 23 hln 100 VALUE=12m
a 0 a 9 0 25 0 hln 100 REFDES=L1
a 0 s 0 0 0 10 hlb 100 PART=l
a 0 s 0:13 0 0 0 hln 100 PKGTYPE=L2012C
a 0 s 0:13 0 0 0 hln 100 GATE=
a 0 a 0:13 0 0 0 hln 100 PKGREF=L1
part 131 VDC 460 160 h
a 1 ap 9 0 28 11 hcn 100 REFDES=V3
a 0 sp 0 0 22 37 hln 100 PART=VDC
a 0 a 0:13 0 0 0 hln 100 PKGREF=V3
a 1 u 13 0 39 24 hcn 100 DC=150
part 1 titleblk 1520 970 h
a 1 s 13 0 350 10 hcn 100 PAGESIZE=B
a 1 s 13 0 180 60 hcn 100 PAGETITLE=
a 1 s 13 0 340 95 hrn 100 PAGECOUNT=1
a 1 s 13 0 300 95 hrn 100 PAGENO=1
part 1865 iMarker 690 510 h
a 0 s 0 0 0 0 hln 100 PROBEVAR=
a 0 s 0 0 0 0 hln 100 PROBEVAR=
a 0 a 0 0 6 20 hlb 100 LABEL=18
part 1866 nodeMarker 600 280 h
a 0 s 0 0 0 0 hln 100 PROBEVAR=
a 0 s 0 0 0 0 hln 100 PROBEVAR=
a 0 a 0 0 4 22 hlb 100 LABEL=19
part 1867 nodeMarker 120 180 h
a 0 s 0 0 0 0 hln 100 PROBEVAR=
a 0 s 0 0 0 0 hln 100 PROBEVAR=
a 0 a 0 0 4 22 hlb 100 LABEL=20
part 1864 nodeMarker 690 370 h
a 0 s 0 0 0 0 hln 100 PROBEVAR=
a 0 s 0 0 0 0 hln 100 PROBEVAR=
a 0 a 0 0 4 22 hlb 100 LABEL=17
part 1868 iMarker 260 180 h
a 0 s 0 0 0 0 hln 100 PROBEVAR=
a 0 a 0 0 6 20 hlb 100 LABEL=21
@conn
w 49
a 0 up 0:33 0 0 0 hln 100 V=
s 340 220 340 180 1542
s 340 180 340 150 1584
s 340 180 320 180 1569
s 360 180 340 180 1524
s 360 180 360 140 1566
s 360 230 360 180 91
a 0 up 33 0 362 205 hlt 100 V=
s 370 140 360 140 75
s 360 230 370 230 85
w 134
a 0 up 0:33 0 0 0 hln 100 V=
s 340 120 340 100 54
s 340 100 360 100 1551
a 0 up 33 0 410 99 hct 100 V=
s 360 100 460 100 1593
s 360 100 360 130 73
s 360 130 370 130 71
s 460 160 460 100 133
w 97
a 0 up 0:33 0 0 0 hln 100 V=
s 420 240 410 240 96
a 0 up 33 0 415 239 hct 100 V=
w 93
a 0 up 0:33 0 0 0 hln 100 V=
s 420 140 410 140 92
a 0 up 33 0 415 139 hct 100 V=
w 3
a 0 up 0:33 0 0 0 hln 100 V=
s 160 140 170 140 2
a 0 up 33 0 165 139 hct 100 V=
w 5
a 0 up 0:33 0 0 0 hln 100 V=
s 160 240 170 240 4
a 0 up 33 0 165 239 hct 100 V=
w 628
a 0 up 0:33 0 0 0 hln 100 V=
s 540 430 540 510 1620
s 540 430 440 430 1162
a 0 up 33 0 525 429 hct 100 V=
s 540 410 540 430 379
w 390
a 0 up 0:33 0 0 0 hln 100 V=
s 480 510 480 500 389
s 440 500 440 490 383
s 440 500 480 500 629
a 0 up 33 0 460 499 hct 100 V=
s 480 500 480 410 1623
w 646
a 0 up 0:33 0 0 0 hln 100 V=
s 480 370 480 380 1629
s 540 370 480 370 1635
s 540 380 540 370 1632
s 590 370 540 370 621
a 0 up 33 0 610 369 hct 100 V=
w 1500
a 0 up 0:33 0 0 0 hln 100 V=
s 290 350 600 350 1435
s 290 350 120 350 1532
s 120 350 120 220 109
s 600 330 600 350 238
s 1090 330 1090 350 681
s 1050 350 1050 330 340
s 1090 350 1050 350 683
s 1050 350 1010 350 1102
s 1010 350 1010 340 312
s 970 350 1010 350 338
s 970 350 970 330 299
s 930 350 970 350 297
s 930 350 930 330 295
s 890 350 930 350 293
s 890 330 890 350 281
s 890 350 830 350 283
s 830 320 830 350 272
s 830 350 740 350 262
a 0 up 33 0 350 349 hct 100 V=
s 780 250 740 250 219
s 740 350 640 350 1725
s 740 250 740 350 221
s 640 350 600 350 1728
s 640 350 640 220 139
w 278
a 0 up 0:33 0 0 0 hln 100 V=
s 890 290 870 290 279
a 0 up 33 0 880 289 hct 100 V=
s 890 300 890 290 277
w 261
a 0 up 0:33 0 0 0 hln 100 V=
s 640 120 880 120 210
a 0 up 33 0 760 119 hct 100 V=
s 640 180 640 170 975
s 640 170 640 120 1735
s 780 170 640 170 216
s 880 120 880 170 212
s 880 170 870 170 214
w 306
a 0 up 0:33 0 0 0 hln 100 V=
s 970 300 970 210 305
s 970 210 870 210 307
a 0 up 33 0 920 209 hct 100 V=
w 302
a 0 up 0:33 0 0 0 hln 100 V=
s 930 300 930 260 301
s 930 260 870 260 303
s 930 260 930 130 320
a 0 up 33 0 932 195 hlt 100 V=
s 930 130 830 130 322
s 830 130 830 140 324
w 315
a 0 up 0:33 0 0 0 hln 100 V=
s 1010 300 1010 190 314
s 1010 190 870 190 685
a 0 up 33 0 940 189 hct 100 V=
w 353
a 0 up 0:33 0 0 0 hln 100 V=
s 1080 240 870 240 1777
s 1080 200 1080 240 354
s 1090 240 1080 240 651
a 0 up 33 0 825 239 hct 100 V=
s 1110 200 1080 200 352
w 364
a 0 up 0:33 0 0 0 hln 100 V=
s 1140 240 1130 240 1778
a 0 up 33 0 1130 239 hct 100 V=
w 1790
a 0 up 0:33 0 0 0 hln 100 V=
s 1180 240 1170 240 361
s 1180 240 1180 270 1784
s 1140 200 1180 200 357
s 1180 200 1180 240 359
s 870 270 1090 270 680
a 0 up 33 0 1140 269 hct 100 V=
s 1090 300 1090 270 678
s 1090 270 1180 270 1745
s 1180 340 1180 270 367
w 1701
a 0 up 0:33 0 0 0 hln 100 V=
a 0 sr 0:3 0 850 98 hcn 100 LABEL=I_sence
s 520 100 1050 100 1450
a 0 sr 3 0 785 98 hcn 100 LABEL=I_sence
s 520 280 520 100 1448
s 520 280 290 280 1688
s 540 280 520 280 1446
s 290 260 290 280 1499
s 290 280 290 310 1686
s 290 260 340 260 1538
s 250 260 290 260 1498
s 340 260 340 250 52
s 340 260 360 260 1574
s 250 260 250 250 27
s 220 260 250 260 1297
a 0 up 33 0 345 259 hct 100 V=
s 360 240 360 260 79
s 220 240 220 260 23
s 370 240 360 240 77
s 210 240 220 240 21
s 1050 230 870 230 336
a 0 up 33 0 960 229 hct 100 V=
s 1050 300 1050 230 334
s 1050 230 1050 100 1518
w 1821
a 0 up 0:33 0 0 0 hln 100 V=
s 660 570 690 570 1641
s 540 570 660 570 1022
a 0 up 33 0 620 569 hct 100 V=
s 660 570 660 480 415
s 850 570 850 560 1139
s 540 570 540 540 400
s 480 570 540 570 398
s 480 540 480 570 396
s 690 570 850 570 1824
s 690 570 690 550 1819
a 0 up 33 0 692 540 hlt 100 V=
w 1801
a 0 up 0:33 0 0 0 hln 100 V=
s 850 520 850 500 1141
s 850 500 850 450 1675
s 850 500 1180 500 1648
a 0 up 33 0 985 499 hct 100 V=
s 1180 500 1180 380 460
s 770 500 850 500 716
s 770 500 770 490 1679
w 437
a 0 up 0:33 0 0 0 hln 100 V=
s 770 430 770 450 1834
a 0 up 33 0 772 435 hlt 100 V=
w 1858
a 0 up 0:33 0 0 0 hln 100 V=
s 690 370 660 370 1663
s 770 370 690 370 1851
s 660 450 660 370 409
a 0 up 33 0 662 410 hlt 100 V=
s 650 370 660 370 644
s 850 370 770 370 1838
s 770 400 770 370 433
s 850 370 850 410 1143
s 690 370 690 420 1859
a 0 up 33 0 692 470 hlt 100 V=
w 1031
a 0 up 0:33 0 0 0 hln 100 V=
s 690 460 690 510 1861
a 0 up 33 0 692 480 hlt 100 V=
w 1113
a 0 up 0:33 0 0 0 hln 100 V=
s 580 280 600 280 1110
a 0 up 33 0 760 279 hct 100 V=
s 600 280 600 300 236
s 600 280 780 280 1700
w 1506
a 0 up 0:33 0 0 0 hln 100 V=
s 250 120 250 100 29
s 120 100 220 100 166
a 0 up 33 0 165 99 hct 100 V=
s 220 130 210 130 33
s 220 100 250 100 1618
s 220 100 220 130 35
s 120 180 120 100 1805
w 1503
a 0 up 0:33 0 0 0 hln 100 V=
s 250 180 260 180 1512
s 250 180 250 150 17
s 250 220 250 180 19
s 220 180 250 180 1284
s 220 180 220 230 1507
s 220 230 210 230 10
s 210 140 220 140 6
s 220 140 220 180 16
a 0 up 33 0 222 205 hlt 100 V=
@junction
j 540 570
+ w 1821
+ w 1821
j 290 350
+ p 100 1
+ s 106
j 170 130
+ p 42 1
+ s 44
j 170 230
+ p 41 1
+ s 45
j 410 130
+ p 58 1
+ s 94
j 460 200
+ p 131 -
+ s 132
j 410 230
+ p 59 1
+ s 98
j 340 220
+ p 56 2
+ w 49
j 340 150
+ p 57 1
+ w 49
j 320 180
+ p 43 2
+ w 49
j 340 180
+ w 49
+ w 49
j 360 180
+ w 49
+ w 49
j 370 140
+ p 58 4
+ w 49
j 370 230
+ p 59 3
+ w 49
j 340 120
+ p 57 2
+ w 134
j 360 100
+ w 134
+ w 134
j 370 130
+ p 58 3
+ w 134
j 460 160
+ p 131 +
+ w 134
j 410 240
+ p 59 2
+ w 97
j 420 240
+ s 99
+ w 97
j 410 140
+ p 58 2
+ w 93
j 420 140
+ s 95
+ w 93
j 340 260
+ w 1701
+ w 1701
j 290 260
+ w 1701
+ w 1701
j 250 260
+ w 1701
+ w 1701
j 260 180
+ p 43 1
+ w 1503
j 250 150
+ p 40 1
+ w 1503
j 250 220
+ p 39 2
+ w 1503
j 250 180
+ w 1503
+ w 1503
j 210 230
+ p 41 3
+ w 1503
j 210 140
+ p 42 4
+ w 1503
j 220 180
+ w 1503
+ w 1503
j 250 120
+ p 40 2
+ w 1506
j 120 180
+ p 38 +
+ w 1506
j 210 130
+ p 42 3
+ w 1506
j 220 100
+ w 1506
+ w 1506
j 170 140
+ p 42 2
+ w 3
j 160 140
+ s 46
+ w 3
j 170 240
+ p 41 2
+ w 5
j 160 240
+ s 47
+ w 5
j 440 430
+ p 372 1
+ w 628
j 440 490
+ p 372 2
+ w 390
j 480 410
+ p 604 1
+ w 390
j 480 500
+ w 390
+ w 390
j 480 380
+ p 604 2
+ w 646
j 540 410
+ p 605 1
+ w 628
j 540 430
+ w 628
+ w 628
j 540 380
+ p 605 2
+ w 646
j 540 540
+ p 374 1
+ w 1821
j 540 510
+ p 374 2
+ w 628
j 480 540
+ p 373 1
+ w 1821
j 480 510
+ p 373 2
+ w 390
j 590 370
+ p 643 2
+ w 646
j 540 370
+ w 646
+ w 646
j 660 480
+ p 408 1
+ w 1821
j 660 570
+ w 1821
+ w 1821
j 660 570
+ s 457
+ w 1821
j 290 280
+ w 1701
+ w 1701
j 290 310
+ p 100 2
+ w 1701
j 340 250
+ p 56 1
+ w 1701
j 370 240
+ p 59 4
+ w 1701
j 250 250
+ p 39 1
+ w 1701
j 210 240
+ p 41 4
+ w 1701
j 540 280
+ p 242 2
+ w 1701
j 520 280
+ w 1701
+ w 1701
j 290 350
+ p 100 1
+ w 1500
j 290 350
+ s 106
+ w 1500
j 120 220
+ p 38 -
+ w 1500
j 580 280
+ p 242 1
+ w 1113
j 600 330
+ p 229 1
+ w 1500
j 600 350
+ w 1500
+ w 1500
j 600 300
+ p 229 2
+ w 1113
j 600 280
+ w 1113
+ w 1113
j 1050 350
+ w 1500
+ w 1500
j 1010 350
+ w 1500
+ w 1500
j 970 350
+ w 1500
+ w 1500
j 930 350
+ w 1500
+ w 1500
j 890 350
+ w 1500
+ w 1500
j 1050 330
+ p 333 1
+ w 1500
j 1010 340
+ p 309 2
+ w 1500
j 970 330
+ p 292 1
+ w 1500
j 930 330
+ p 291 1
+ w 1500
j 890 330
+ p 276 1
+ w 1500
j 830 350
+ w 1500
+ w 1500
j 740 350
+ w 1500
+ w 1500
j 640 220
+ p 130 -
+ w 1500
j 640 350
+ w 1500
+ w 1500
j 1050 300
+ p 333 2
+ w 1701
j 1050 230
+ w 1701
+ w 1701
j 890 300
+ p 276 2
+ w 278
j 640 180
+ p 130 +
+ w 261
j 640 170
+ w 261
+ w 261
j 970 300
+ p 292 2
+ w 306
j 930 300
+ p 291 2
+ w 302
j 930 260
+ w 302
+ w 302
j 1010 300
+ p 309 1
+ w 315
j 1090 330
+ p 677 1
+ w 1500
j 780 190
+ p 37 OUTA
+ s 142
j 780 210
+ p 37 OUTB
+ s 144
j 780 280
+ p 37 ILIM
+ w 1113
j 830 320
+ p 37 GND
+ w 1500
j 780 250
+ p 37 PWRGND
+ w 1500
j 870 230
+ p 37 RAMP
+ w 1701
j 870 290
+ p 37 START
+ w 278
j 780 170
+ p 37 V_C
+ w 261
j 870 170
+ p 37 VIN
+ w 261
j 870 210
+ p 37 CT
+ w 306
j 870 260
+ p 37 ERR+
+ w 302
j 830 140
+ p 37 VREF
+ w 302
j 870 190
+ p 37 CLK
+ w 315
j 850 450
+ p 1146 2
+ w 1801
j 850 500
+ w 1801
+ w 1801
j 870 240
+ p 37 ERROUT
+ w 353
j 1090 240
+ p 349 2
+ w 353
j 1080 240
+ w 353
+ w 353
j 1110 200
+ p 350 2
+ w 353
j 1140 240
+ p 351 2
+ w 364
j 1130 240
+ p 349 1
+ w 364
j 1170 240
+ p 351 1
+ w 1790
j 1140 200
+ p 350 1
+ w 1790
j 1180 240
+ w 1790
+ w 1790
j 870 270
+ p 37 ERR-
+ w 1790
j 1090 300
+ p 677 2
+ w 1790
j 1090 270
+ w 1790
+ w 1790
j 1180 340
+ p 369 2
+ w 1790
j 1180 270
+ w 1790
+ w 1790
j 1180 380
+ p 369 1
+ w 1801
j 660 370
+ w 1858
+ w 1858
j 690 570
+ w 1821
+ w 1821
j 770 490
+ p 427 2
+ w 1801
j 690 370
+ w 1858
+ w 1858
j 770 370
+ w 1858
+ w 1858
j 770 430
+ p 426 1
+ w 437
j 770 450
+ p 427 1
+ w 437
j 850 560
+ p 1145 2
+ w 1821
j 850 520
+ p 1145 1
+ w 1801
j 660 450
+ p 408 2
+ w 1858
j 650 370
+ p 643 1
+ w 1858
j 850 410
+ p 1146 1
+ w 1858
j 770 400
+ p 426 2
+ w 1858
j 690 550
+ p 417 2
+ w 1821
j 690 510
+ p 417 1
+ w 1031
j 690 370
+ p 1864 pin1
+ w 1858
j 690 510
+ p 1865 pin1
+ p 417 1
j 690 510
+ p 1865 pin1
+ w 1031
j 600 280
+ p 1866 pin1
+ w 1113
j 120 180
+ p 1867 pin1
+ p 38 +
j 120 180
+ p 1867 pin1
+ w 1506
j 690 420
+ p 1855 +
+ w 1858
j 690 460
+ p 1855 -
+ w 1031
j 260 180
+ p 1868 pin1
+ p 43 1
j 260 180
+ p 1868 pin1
+ w 1503
@attributes
a 0 s 0:13 0 0 0 hln 100 PAGETITLE=
a 0 s 0:13 0 0 0 hln 100 PAGENO=1
a 0 s 0:13 0 0 0 hln 100 PAGESIZE=B
a 0 s 0:13 0 0 0 hln 100 PAGECOUNT=1
@graphics
