.model Dbreak-X D Is=1e-10 Cjo=150pF Rs=.05 
*$
